Circuit: * C:\Users\Chris\.julia\v0.4\LTspice\test\ParseCircuitFileTests\PCF_test3.asc

Direct Newton iteration for .op point succeeded.
.step 2n2222(vaf)=50 v2=10 v1=1
.step 2n2222(vaf)=75 v2=10 v1=1
.step 2n2222(vaf)=100 v2=10 v1=1
.step 2n2222(vaf)=50 v2=15 v1=1
.step 2n2222(vaf)=75 v2=15 v1=1
.step 2n2222(vaf)=100 v2=15 v1=1
.step 2n2222(vaf)=50 v2=20 v1=1
.step 2n2222(vaf)=75 v2=20 v1=1
.step 2n2222(vaf)=100 v2=20 v1=1
.step 2n2222(vaf)=50 v2=25 v1=1
.step 2n2222(vaf)=75 v2=25 v1=1
.step 2n2222(vaf)=100 v2=25 v1=1
.step 2n2222(vaf)=50 v2=30 v1=1
.step 2n2222(vaf)=75 v2=30 v1=1
.step 2n2222(vaf)=100 v2=30 v1=1
.step 2n2222(vaf)=50 v2=10 v1=2
.step 2n2222(vaf)=75 v2=10 v1=2
.step 2n2222(vaf)=100 v2=10 v1=2
.step 2n2222(vaf)=50 v2=15 v1=2
.step 2n2222(vaf)=75 v2=15 v1=2
.step 2n2222(vaf)=100 v2=15 v1=2
.step 2n2222(vaf)=50 v2=20 v1=2
.step 2n2222(vaf)=75 v2=20 v1=2
.step 2n2222(vaf)=100 v2=20 v1=2
.step 2n2222(vaf)=50 v2=25 v1=2
.step 2n2222(vaf)=75 v2=25 v1=2
.step 2n2222(vaf)=100 v2=25 v1=2
.step 2n2222(vaf)=50 v2=30 v1=2
.step 2n2222(vaf)=75 v2=30 v1=2
.step 2n2222(vaf)=100 v2=30 v1=2


Measurement: aaaaaa
  step	i(r1)	at
     1	0.000374401	1
     2	0.000373188	1
     3	0.000372558	1
     4	0.000376375	1
     5	0.000374588	1
     6	0.000373643	1
     7	0.000378201	1
     8	0.000375912	1
     9	0.000374681	1
    10	0.000379899	1
    11	0.000377168	1
    12	0.000375677	1
    13	0.000381486	1
    14	0.000378362	1
    15	0.000376634	1
    16	0.00134023	1
    17	0.00133921	1
    18	0.00133869	1
    19	0.00134238	1
    20	0.00134072	1
    21	0.00133985	1
    22	0.00134436	1
    23	0.00134215	1
    24	0.00134097	1
    25	0.00134619	1
    26	0.0013435	1
    27	0.00134203	1
    28	0.00134791	1
    29	0.00134478	1
    30	0.00134306	1

Measurement: b43
  step	i(r2)	at
     1	0.000372809	1
     2	0.00037152	1
     3	0.000370849	1
     4	0.0003749	1
     5	0.000373008	1
     6	0.000372004	1
     7	0.000376827	1
     8	0.000374411	1
     9	0.000373107	1
    10	0.000378612	1
    11	0.000375738	1
    12	0.000374163	1
    13	0.000380276	1
    14	0.000376996	1
    15	0.000375174	1
    16	0.00133432	1
    17	0.00133307	1
    18	0.00133242	1
    19	0.00133694	1
    20	0.00133492	1
    21	0.00133386	1
    22	0.00133932	1
    23	0.00133666	1
    24	0.00133522	1
    25	0.0013415	1
    26	0.00133829	1
    27	0.00133652	1
    28	0.00134351	1
    29	0.00133982	1
    30	0.00133776	1


Date: Fri Aug 21 06:38:22 2015
Total elapsed time: 1.232 seconds.

tnom = 27
temp = 27
method = modified trap
totiter = 2094
traniter = 2088
tranpoints = 1045
accept = 1045
rejected = 0
matrix size = 9
fillins = 0
solver = Normal
Matrix Compiler1: 394 bytes object code size  0.1/0.1/[0.0]
Matrix Compiler2: 667 bytes object code size  0.1/0.1/[0.0]


