Circuit: * C:\Users\Chris\.julia\v0.4\LTspice\test\PCF_test1.asc

Direct Newton iteration for .op point succeeded.
.step a=1 b=10 c=100
.step a=2 b=10 c=100
.step a=1 b=15 c=100
.step a=2 b=15 c=100
.step a=1 b=20 c=100
.step a=2 b=20 c=100
.step a=1 b=25 c=100
.step a=2 b=25 c=100
.step a=1 b=10 c=200
.step a=2 b=10 c=200
.step a=1 b=15 c=200
.step a=2 b=15 c=200
.step a=1 b=20 c=200
.step a=2 b=20 c=200
.step a=1 b=25 c=200
.step a=2 b=25 c=200
.step a=1 b=10 c=300
.step a=2 b=10 c=300
.step a=1 b=15 c=300
.step a=2 b=15 c=300
.step a=1 b=20 c=300
.step a=2 b=20 c=300
.step a=1 b=25 c=300
.step a=2 b=25 c=300


Measurement: sum
  step	a+b+c
     1	111
     2	112
     3	116
     4	117
     5	121
     6	122
     7	126
     8	127
     9	211
    10	212
    11	216
    12	217
    13	221
    14	222
    15	226
    16	227
    17	311
    18	312
    19	316
    20	317
    21	321
    22	322
    23	326
    24	327

Measurement: sump1000
  step	a+b+c+1000
     1	1111
     2	1112
     3	1116
     4	1117
     5	1121
     6	1122
     7	1126
     8	1127
     9	1211
    10	1212
    11	1216
    12	1217
    13	1221
    14	1222
    15	1226
    16	1227
    17	1311
    18	1312
    19	1316
    20	1317
    21	1321
    22	1322
    23	1326
    24	1327


Date: Fri Aug 28 20:54:46 2015
Total elapsed time: 0.390 seconds.

tnom = 27
temp = 27
method = modified trap
totiter = 2091
traniter = 2088
tranpoints = 1045
accept = 1045
rejected = 0
matrix size = 2
fillins = 0
solver = Normal
Matrix Compiler1: off  [0.0]/0.0/0.0
Matrix Compiler2: off  [0.0]/0.0/0.0


