Circuit: * C:\Users\Chris\.julia\v0.6\LTspice\test\test1.asc

Direct Newton iteration for .op point succeeded.

current: i(r1)=2.5


Date: Wed Jul 05 01:53:01 2017
Total elapsed time: 0.074 seconds.

tnom = 27
temp = 27
method = modified trap
totiter = 2091
traniter = 2088
tranpoints = 1045
accept = 1045
rejected = 0
matrix size = 2
fillins = 0
solver = Normal
Matrix Compiler1:       2 opcodes  0.0/[0.0]/0.0
Matrix Compiler2: off  [0.0]/0.0/0.0

