Circuit: * C:\Users\Chris\.julia\v0.3\LTspice\test\test2.asc

Direct Newton iteration for .op point succeeded.

x: INTEG(i(r1))=1.00394 FROM 0 TO 1
y: INTEG(i(r2))=0.984252 FROM 0 TO 1
z: INTEG(i(r3))=0.019685 FROM 0 TO 1


Date: Fri Aug 07 21:09:42 2015
Total elapsed time: 0.000 seconds.

tnom = 27
temp = 27
method = modified trap
totiter = 2091
traniter = 2088
tranpoints = 1045
accept = 1045
rejected = 0
matrix size = 3
fillins = 0
solver = Normal
Matrix Compiler1: 50 bytes object code size  0.0/0.0/[0.0]
Matrix Compiler2: off  [0.0]/0.0/0.0


