Circuit: * C:\Users\Chris\.julia\v0.3\LTspice\test\test1.asc

Direct Newton iteration for .op point succeeded.

current: i(r1)=2.5


Date: Sat Aug 08 00:07:34 2015
Total elapsed time: 0.016 seconds.

tnom = 27
temp = 27
method = modified trap
totiter = 2091
traniter = 2088
tranpoints = 1045
accept = 1045
rejected = 0
matrix size = 2
fillins = 0
solver = Normal
Matrix Compiler1: 36 bytes object code size  0.0/0.0/[0.0]
Matrix Compiler2:       9 opcodes  0.0/[0.0]/0.1


