Circuit: * C:\Users\Chris\.julia\v0.3\LTspice\test\test1.asc

Direct Newton iteration for .op point succeeded.

current: i(r1)=2.5


Date: Fri Aug 07 21:09:41 2015
Total elapsed time: 0.000 seconds.

tnom = 27
temp = 27
method = modified trap
totiter = 2091
traniter = 2088
tranpoints = 1045
accept = 1045
rejected = 0
matrix size = 2
fillins = 0
solver = Normal
Matrix Compiler1: off  [0.0]/0.0/0.0
Matrix Compiler2: off  [0.0]/0.0/0.0


