Circuit: * C:\Users\Chris\.julia\v0.4\LTspice\test\test8.asc

Direct Newton iteration for .op point succeeded.

a@m: a@=1
b#m: b#=2
c$m: c$=3
e:m: e:=5
voltage: v(n001)=-4 at 0.5
y_x: x_=11


Date: Tue Sep 01 11:39:17 2015
Total elapsed time: 0.031 seconds.

tnom = 27
temp = 27
method = modified trap
totiter = 2091
traniter = 2088
tranpoints = 1045
accept = 1045
rejected = 0
matrix size = 1
fillins = 0
solver = Normal
Matrix Compiler1: off  0.0/[0.0]/0.1
Matrix Compiler2: 43 bytes object code size  0.0/0.1/[0.0]


