Circuit: * C:\Users\Chris\.julia\v0.4\LTspice\test\test1.asc

Direct Newton iteration for .op point succeeded.

current: i(r1)=2.5


Date: Sun Sep 13 22:48:38 2015
Total elapsed time: 0.050 seconds.

tnom = 27
temp = 27
method = modified trap
totiter = 2091
traniter = 2088
tranpoints = 1045
accept = 1045
rejected = 0
matrix size = 2
fillins = 0
solver = Normal
Matrix Compiler1: off  [0.1]/0.1/0.1
Matrix Compiler2: 96 bytes object code size  0.1/0.1/[0.0]


