Circuit: * C:\Users\Chris\.julia\v0.4\LTspice\test\PCF_test2.asc

Direct Newton iteration for .op point succeeded.
.step v1=1 b=1 c=4
.step v1=1.1487 b=1 c=4
.step v1=1.31951 b=1 c=4
.step v1=1.51572 b=1 c=4
.step v1=1.7411 b=1 c=4
.step v1=2 b=1 c=4
.step v1=2.2974 b=1 c=4
.step v1=2.63902 b=1 c=4
.step v1=3.03143 b=1 c=4
.step v1=3.4822 b=1 c=4
.step v1=4 b=1 c=4
.step v1=4.59479 b=1 c=4
.step v1=5.27803 b=1 c=4
.step v1=6.06287 b=1 c=4
.step v1=6.9644 b=1 c=4
.step v1=8 b=1 c=4
.step v1=9.18959 b=1 c=4
.step v1=10.5561 b=1 c=4
.step v1=12.1257 b=1 c=4
.step v1=13.9288 b=1 c=4
.step v1=16 b=1 c=4
.step v1=18.3792 b=1 c=4
.step v1=20 b=1 c=4
.step v1=1 b=3 c=4
.step v1=1.1487 b=3 c=4
.step v1=1.31951 b=3 c=4
.step v1=1.51572 b=3 c=4
.step v1=1.7411 b=3 c=4
.step v1=2 b=3 c=4
.step v1=2.2974 b=3 c=4
.step v1=2.63902 b=3 c=4
.step v1=3.03143 b=3 c=4
.step v1=3.4822 b=3 c=4
.step v1=4 b=3 c=4
.step v1=4.59479 b=3 c=4
.step v1=5.27803 b=3 c=4
.step v1=6.06287 b=3 c=4
.step v1=6.9644 b=3 c=4
.step v1=8 b=3 c=4
.step v1=9.18959 b=3 c=4
.step v1=10.5561 b=3 c=4
.step v1=12.1257 b=3 c=4
.step v1=13.9288 b=3 c=4
.step v1=16 b=3 c=4
.step v1=18.3792 b=3 c=4
.step v1=20 b=3 c=4
.step v1=1 b=5 c=4
.step v1=1.1487 b=5 c=4
.step v1=1.31951 b=5 c=4
.step v1=1.51572 b=5 c=4
.step v1=1.7411 b=5 c=4
.step v1=2 b=5 c=4
.step v1=2.2974 b=5 c=4
.step v1=2.63902 b=5 c=4
.step v1=3.03143 b=5 c=4
.step v1=3.4822 b=5 c=4
.step v1=4 b=5 c=4
.step v1=4.59479 b=5 c=4
.step v1=5.27803 b=5 c=4
.step v1=6.06287 b=5 c=4
.step v1=6.9644 b=5 c=4
.step v1=8 b=5 c=4
.step v1=9.18959 b=5 c=4
.step v1=10.5561 b=5 c=4
.step v1=12.1257 b=5 c=4
.step v1=13.9288 b=5 c=4
.step v1=16 b=5 c=4
.step v1=18.3792 b=5 c=4
.step v1=20 b=5 c=4
.step v1=1 b=7 c=4
.step v1=1.1487 b=7 c=4
.step v1=1.31951 b=7 c=4
.step v1=1.51572 b=7 c=4
.step v1=1.7411 b=7 c=4
.step v1=2 b=7 c=4
.step v1=2.2974 b=7 c=4
.step v1=2.63902 b=7 c=4
.step v1=3.03143 b=7 c=4
.step v1=3.4822 b=7 c=4
.step v1=4 b=7 c=4
.step v1=4.59479 b=7 c=4
.step v1=5.27803 b=7 c=4
.step v1=6.06287 b=7 c=4
.step v1=6.9644 b=7 c=4
.step v1=8 b=7 c=4
.step v1=9.18959 b=7 c=4
.step v1=10.5561 b=7 c=4
.step v1=12.1257 b=7 c=4
.step v1=13.9288 b=7 c=4
.step v1=16 b=7 c=4
.step v1=18.3792 b=7 c=4
.step v1=20 b=7 c=4
.step v1=1 b=9 c=4
.step v1=1.1487 b=9 c=4
.step v1=1.31951 b=9 c=4
.step v1=1.51572 b=9 c=4
.step v1=1.7411 b=9 c=4
.step v1=2 b=9 c=4
.step v1=2.2974 b=9 c=4
.step v1=2.63902 b=9 c=4
.step v1=3.03143 b=9 c=4
.step v1=3.4822 b=9 c=4
.step v1=4 b=9 c=4
.step v1=4.59479 b=9 c=4
.step v1=5.27803 b=9 c=4
.step v1=6.06287 b=9 c=4
.step v1=6.9644 b=9 c=4
.step v1=8 b=9 c=4
.step v1=9.18959 b=9 c=4
.step v1=10.5561 b=9 c=4
.step v1=12.1257 b=9 c=4
.step v1=13.9288 b=9 c=4
.step v1=16 b=9 c=4
.step v1=18.3792 b=9 c=4
.step v1=20 b=9 c=4
.step v1=1 b=10 c=4
.step v1=1.1487 b=10 c=4
.step v1=1.31951 b=10 c=4
.step v1=1.51572 b=10 c=4
.step v1=1.7411 b=10 c=4
.step v1=2 b=10 c=4
.step v1=2.2974 b=10 c=4
.step v1=2.63902 b=10 c=4
.step v1=3.03143 b=10 c=4
.step v1=3.4822 b=10 c=4
.step v1=4 b=10 c=4
.step v1=4.59479 b=10 c=4
.step v1=5.27803 b=10 c=4
.step v1=6.06287 b=10 c=4
.step v1=6.9644 b=10 c=4
.step v1=8 b=10 c=4
.step v1=9.18959 b=10 c=4
.step v1=10.5561 b=10 c=4
.step v1=12.1257 b=10 c=4
.step v1=13.9288 b=10 c=4
.step v1=16 b=10 c=4
.step v1=18.3792 b=10 c=4
.step v1=20 b=10 c=4
.step v1=1 b=1 c=5
.step v1=1.1487 b=1 c=5
.step v1=1.31951 b=1 c=5
.step v1=1.51572 b=1 c=5
.step v1=1.7411 b=1 c=5
.step v1=2 b=1 c=5
.step v1=2.2974 b=1 c=5
.step v1=2.63902 b=1 c=5
.step v1=3.03143 b=1 c=5
.step v1=3.4822 b=1 c=5
.step v1=4 b=1 c=5
.step v1=4.59479 b=1 c=5
.step v1=5.27803 b=1 c=5
.step v1=6.06287 b=1 c=5
.step v1=6.9644 b=1 c=5
.step v1=8 b=1 c=5
.step v1=9.18959 b=1 c=5
.step v1=10.5561 b=1 c=5
.step v1=12.1257 b=1 c=5
.step v1=13.9288 b=1 c=5
.step v1=16 b=1 c=5
.step v1=18.3792 b=1 c=5
.step v1=20 b=1 c=5
.step v1=1 b=3 c=5
.step v1=1.1487 b=3 c=5
.step v1=1.31951 b=3 c=5
.step v1=1.51572 b=3 c=5
.step v1=1.7411 b=3 c=5
.step v1=2 b=3 c=5
.step v1=2.2974 b=3 c=5
.step v1=2.63902 b=3 c=5
.step v1=3.03143 b=3 c=5
.step v1=3.4822 b=3 c=5
.step v1=4 b=3 c=5
.step v1=4.59479 b=3 c=5
.step v1=5.27803 b=3 c=5
.step v1=6.06287 b=3 c=5
.step v1=6.9644 b=3 c=5
.step v1=8 b=3 c=5
.step v1=9.18959 b=3 c=5
.step v1=10.5561 b=3 c=5
.step v1=12.1257 b=3 c=5
.step v1=13.9288 b=3 c=5
.step v1=16 b=3 c=5
.step v1=18.3792 b=3 c=5
.step v1=20 b=3 c=5
.step v1=1 b=5 c=5
.step v1=1.1487 b=5 c=5
.step v1=1.31951 b=5 c=5
.step v1=1.51572 b=5 c=5
.step v1=1.7411 b=5 c=5
.step v1=2 b=5 c=5
.step v1=2.2974 b=5 c=5
.step v1=2.63902 b=5 c=5
.step v1=3.03143 b=5 c=5
.step v1=3.4822 b=5 c=5
.step v1=4 b=5 c=5
.step v1=4.59479 b=5 c=5
.step v1=5.27803 b=5 c=5
.step v1=6.06287 b=5 c=5
.step v1=6.9644 b=5 c=5
.step v1=8 b=5 c=5
.step v1=9.18959 b=5 c=5
.step v1=10.5561 b=5 c=5
.step v1=12.1257 b=5 c=5
.step v1=13.9288 b=5 c=5
.step v1=16 b=5 c=5
.step v1=18.3792 b=5 c=5
.step v1=20 b=5 c=5
.step v1=1 b=7 c=5
.step v1=1.1487 b=7 c=5
.step v1=1.31951 b=7 c=5
.step v1=1.51572 b=7 c=5
.step v1=1.7411 b=7 c=5
.step v1=2 b=7 c=5
.step v1=2.2974 b=7 c=5
.step v1=2.63902 b=7 c=5
.step v1=3.03143 b=7 c=5
.step v1=3.4822 b=7 c=5
.step v1=4 b=7 c=5
.step v1=4.59479 b=7 c=5
.step v1=5.27803 b=7 c=5
.step v1=6.06287 b=7 c=5
.step v1=6.9644 b=7 c=5
.step v1=8 b=7 c=5
.step v1=9.18959 b=7 c=5
.step v1=10.5561 b=7 c=5
.step v1=12.1257 b=7 c=5
.step v1=13.9288 b=7 c=5
.step v1=16 b=7 c=5
.step v1=18.3792 b=7 c=5
.step v1=20 b=7 c=5
.step v1=1 b=9 c=5
.step v1=1.1487 b=9 c=5
.step v1=1.31951 b=9 c=5
.step v1=1.51572 b=9 c=5
.step v1=1.7411 b=9 c=5
.step v1=2 b=9 c=5
.step v1=2.2974 b=9 c=5
.step v1=2.63902 b=9 c=5
.step v1=3.03143 b=9 c=5
.step v1=3.4822 b=9 c=5
.step v1=4 b=9 c=5
.step v1=4.59479 b=9 c=5
.step v1=5.27803 b=9 c=5
.step v1=6.06287 b=9 c=5
.step v1=6.9644 b=9 c=5
.step v1=8 b=9 c=5
.step v1=9.18959 b=9 c=5
.step v1=10.5561 b=9 c=5
.step v1=12.1257 b=9 c=5
.step v1=13.9288 b=9 c=5
.step v1=16 b=9 c=5
.step v1=18.3792 b=9 c=5
.step v1=20 b=9 c=5
.step v1=1 b=10 c=5
.step v1=1.1487 b=10 c=5
.step v1=1.31951 b=10 c=5
.step v1=1.51572 b=10 c=5
.step v1=1.7411 b=10 c=5
.step v1=2 b=10 c=5
.step v1=2.2974 b=10 c=5
.step v1=2.63902 b=10 c=5
.step v1=3.03143 b=10 c=5
.step v1=3.4822 b=10 c=5
.step v1=4 b=10 c=5
.step v1=4.59479 b=10 c=5
.step v1=5.27803 b=10 c=5
.step v1=6.06287 b=10 c=5
.step v1=6.9644 b=10 c=5
.step v1=8 b=10 c=5
.step v1=9.18959 b=10 c=5
.step v1=10.5561 b=10 c=5
.step v1=12.1257 b=10 c=5
.step v1=13.9288 b=10 c=5
.step v1=16 b=10 c=5
.step v1=18.3792 b=10 c=5
.step v1=20 b=10 c=5
.step v1=1 b=1 c=6
.step v1=1.1487 b=1 c=6
.step v1=1.31951 b=1 c=6
.step v1=1.51572 b=1 c=6
.step v1=1.7411 b=1 c=6
.step v1=2 b=1 c=6
.step v1=2.2974 b=1 c=6
.step v1=2.63902 b=1 c=6
.step v1=3.03143 b=1 c=6
.step v1=3.4822 b=1 c=6
.step v1=4 b=1 c=6
.step v1=4.59479 b=1 c=6
.step v1=5.27803 b=1 c=6
.step v1=6.06287 b=1 c=6
.step v1=6.9644 b=1 c=6
.step v1=8 b=1 c=6
.step v1=9.18959 b=1 c=6
.step v1=10.5561 b=1 c=6
.step v1=12.1257 b=1 c=6
.step v1=13.9288 b=1 c=6
.step v1=16 b=1 c=6
.step v1=18.3792 b=1 c=6
.step v1=20 b=1 c=6
.step v1=1 b=3 c=6
.step v1=1.1487 b=3 c=6
.step v1=1.31951 b=3 c=6
.step v1=1.51572 b=3 c=6
.step v1=1.7411 b=3 c=6
.step v1=2 b=3 c=6
.step v1=2.2974 b=3 c=6
.step v1=2.63902 b=3 c=6
.step v1=3.03143 b=3 c=6
.step v1=3.4822 b=3 c=6
.step v1=4 b=3 c=6
.step v1=4.59479 b=3 c=6
.step v1=5.27803 b=3 c=6
.step v1=6.06287 b=3 c=6
.step v1=6.9644 b=3 c=6
.step v1=8 b=3 c=6
.step v1=9.18959 b=3 c=6
.step v1=10.5561 b=3 c=6
.step v1=12.1257 b=3 c=6
.step v1=13.9288 b=3 c=6
.step v1=16 b=3 c=6
.step v1=18.3792 b=3 c=6
.step v1=20 b=3 c=6
.step v1=1 b=5 c=6
.step v1=1.1487 b=5 c=6
.step v1=1.31951 b=5 c=6
.step v1=1.51572 b=5 c=6
.step v1=1.7411 b=5 c=6
.step v1=2 b=5 c=6
.step v1=2.2974 b=5 c=6
.step v1=2.63902 b=5 c=6
.step v1=3.03143 b=5 c=6
.step v1=3.4822 b=5 c=6
.step v1=4 b=5 c=6
.step v1=4.59479 b=5 c=6
.step v1=5.27803 b=5 c=6
.step v1=6.06287 b=5 c=6
.step v1=6.9644 b=5 c=6
.step v1=8 b=5 c=6
.step v1=9.18959 b=5 c=6
.step v1=10.5561 b=5 c=6
.step v1=12.1257 b=5 c=6
.step v1=13.9288 b=5 c=6
.step v1=16 b=5 c=6
.step v1=18.3792 b=5 c=6
.step v1=20 b=5 c=6
.step v1=1 b=7 c=6
.step v1=1.1487 b=7 c=6
.step v1=1.31951 b=7 c=6
.step v1=1.51572 b=7 c=6
.step v1=1.7411 b=7 c=6
.step v1=2 b=7 c=6
.step v1=2.2974 b=7 c=6
.step v1=2.63902 b=7 c=6
.step v1=3.03143 b=7 c=6
.step v1=3.4822 b=7 c=6
.step v1=4 b=7 c=6
.step v1=4.59479 b=7 c=6
.step v1=5.27803 b=7 c=6
.step v1=6.06287 b=7 c=6
.step v1=6.9644 b=7 c=6
.step v1=8 b=7 c=6
.step v1=9.18959 b=7 c=6
.step v1=10.5561 b=7 c=6
.step v1=12.1257 b=7 c=6
.step v1=13.9288 b=7 c=6
.step v1=16 b=7 c=6
.step v1=18.3792 b=7 c=6
.step v1=20 b=7 c=6
.step v1=1 b=9 c=6
.step v1=1.1487 b=9 c=6
.step v1=1.31951 b=9 c=6
.step v1=1.51572 b=9 c=6
.step v1=1.7411 b=9 c=6
.step v1=2 b=9 c=6
.step v1=2.2974 b=9 c=6
.step v1=2.63902 b=9 c=6
.step v1=3.03143 b=9 c=6
.step v1=3.4822 b=9 c=6
.step v1=4 b=9 c=6
.step v1=4.59479 b=9 c=6
.step v1=5.27803 b=9 c=6
.step v1=6.06287 b=9 c=6
.step v1=6.9644 b=9 c=6
.step v1=8 b=9 c=6
.step v1=9.18959 b=9 c=6
.step v1=10.5561 b=9 c=6
.step v1=12.1257 b=9 c=6
.step v1=13.9288 b=9 c=6
.step v1=16 b=9 c=6
.step v1=18.3792 b=9 c=6
.step v1=20 b=9 c=6
.step v1=1 b=10 c=6
.step v1=1.1487 b=10 c=6
.step v1=1.31951 b=10 c=6
.step v1=1.51572 b=10 c=6
.step v1=1.7411 b=10 c=6
.step v1=2 b=10 c=6
.step v1=2.2974 b=10 c=6
.step v1=2.63902 b=10 c=6
.step v1=3.03143 b=10 c=6
.step v1=3.4822 b=10 c=6
.step v1=4 b=10 c=6
.step v1=4.59479 b=10 c=6
.step v1=5.27803 b=10 c=6
.step v1=6.06287 b=10 c=6
.step v1=6.9644 b=10 c=6
.step v1=8 b=10 c=6
.step v1=9.18959 b=10 c=6
.step v1=10.5561 b=10 c=6
.step v1=12.1257 b=10 c=6
.step v1=13.9288 b=10 c=6
.step v1=16 b=10 c=6
.step v1=18.3792 b=10 c=6
.step v1=20 b=10 c=6

Date: Thu Aug 27 20:36:27 2015
Total elapsed time: 6.709 seconds.

tnom = 27
temp = 27
method = modified trap
totiter = 2091
traniter = 2088
tranpoints = 1045
accept = 1045
rejected = 0
matrix size = 2
fillins = 0
solver = Normal
Matrix Compiler1: 36 bytes object code size  0.0/0.0/[0.0]
Matrix Compiler2: off  [0.0]/0.0/0.0


