Circuit: * C:\Users\Chris\.julia\v0.6\LTspice\test\testInc1.asc

Direct Newton iteration for .op point succeeded.

inca: a=1
incb: b=2
incc: c=3
incd: d=4
ince: ee=5
incf: f=6


Date: Thu Jul 06 04:47:36 2017
Total elapsed time: 0.059 seconds.

tnom = 27
temp = 27
method = modified trap
totiter = 2091
traniter = 2088
tranpoints = 1045
accept = 1045
rejected = 0
matrix size = 2
fillins = 0
solver = Normal
Matrix Compiler1: 36 bytes object code size  0.0/0.0/[0.0]
Matrix Compiler2:       9 opcodes  0.0/[0.0]/0.0

