Circuit: * C:\Users\Chris\Documents\IPython Notebooks\LTspice\test9.asc

Direct Newton iteration for .op point succeeded.
.step vin=-1
.step vin=0
.step vin=1


Measurement: m1
  step	i(r1)	at
     1	-0.5	0.5
     2	0	0.5
     3	0.5	0.5

Measurement: bad_meas
  step	1/vin	at
     1	-1	0.5
     2	1.#INF	0.5
     3	1	0.5

Measurement: bad_meas2
  step	-1/vin	at
     1	1	0.5
     2	-1.#INF	0.5
     3	-1	0.5


Date: Thu May 19 04:03:29 2016
Total elapsed time: 0.062 seconds.

tnom = 27
temp = 27
method = modified trap
totiter = 2091
traniter = 2088
tranpoints = 1045
accept = 1045
rejected = 0
matrix size = 2
fillins = 0
solver = Normal
Matrix Compiler1: off  [0.0]/0.0/0.0
Matrix Compiler2: 96 bytes object code size  0.0/0.0/[0.0]


