Circuit: * C:\Users\Chris\.julia\v0.4\LTspice\test\test5.asc

Direct Newton iteration for .op point succeeded.
.step a=1
.step a=2


Measurement: sum
  step	a
     1	1
     2	2

Measurement: sump1000
  step	a+1000
     1	1001
     2	1002


Date: Sun Aug 30 07:02:13 2015
Total elapsed time: 0.032 seconds.

tnom = 27
temp = 27
method = modified trap
totiter = 2091
traniter = 2088
tranpoints = 1045
accept = 1045
rejected = 0
matrix size = 2
fillins = 0
solver = Normal
Matrix Compiler1: off  [0.0]/0.0/0.0
Matrix Compiler2: 96 bytes object code size  0.0/0.0/[0.0]


