Circuit: * C:\Users\Chris\.julia\v0.6\LTspice\test\test1.asc

Direct Newton iteration for .op point succeeded.

current: i(r1)=2.5


Date: Mon Jul 03 02:53:33 2017
Total elapsed time: 0.110 seconds.

tnom = 27
temp = 27
method = modified trap
totiter = 2091
traniter = 2088
tranpoints = 1045
accept = 1045
rejected = 0
matrix size = 2
fillins = 0
solver = Normal
Matrix Compiler1: 36 bytes object code size  0.0/0.0/[0.0]
Matrix Compiler2: off  [0.0]/0.0/0.0

