Circuit: * C:\Users\Chris\Documents\IPython Notebooks\LTspice\test10.asc

.OP point found by inspection.

m1: i(r1)=0 at 0.5
bad_meas: 1/vin=1.#INF at 0.5
bad_meas2: 1/i(r1)=1e+308 at 0.5


Date: Thu May 19 04:03:35 2016
Total elapsed time: 0.016 seconds.

tnom = 27
temp = 27
method = modified trap
totiter = 2088
traniter = 2088
tranpoints = 1045
accept = 1045
rejected = 0
matrix size = 2
fillins = 0
solver = Normal
Matrix Compiler1:       2 opcodes  0.0/[0.0]/0.0
Matrix Compiler2: 96 bytes object code size  0.0/0.0/[0.0]


