Circuit: * C:\Users\Chris\.julia\v0.4\LTspice\test\test6.asc

Direct Newton iteration for .op point succeeded.

Date: Sun Aug 30 07:08:53 2015
Total elapsed time: 0.015 seconds.

tnom = 27
temp = 27
method = modified trap
totiter = 2091
traniter = 2088
tranpoints = 1045
accept = 1045
rejected = 0
matrix size = 2
fillins = 0
solver = Normal
Matrix Compiler1:       2 opcodes  0.0/[0.0]/0.0
Matrix Compiler2:       9 opcodes  0.0/[0.0]/0.0


