Circuit: * Z:\home\chris\.julia\v0.4\LTspice\test\test1.asc

Direct Newton iteration for .op point succeeded.

current: i(r1)=2.5


Date: Tue Sep 15 00:42:56 2015
Total elapsed time: 0.004 seconds.

tnom = 27
temp = 27
method = modified trap
totiter = 2091
traniter = 2088
tranpoints = 1045
accept = 1045
rejected = 0
matrix size = 2
fillins = 0
solver = Normal
Matrix Compiler1: 36 bytes object code size  0.1/0.2/[0.1]
Matrix Compiler2: 96 bytes object code size  0.2/0.2/[0.2]


