Circuit: * C:\Users\Chris\.julia\v0.4\LTspice\test\test4.asc

Direct Newton iteration for .op point succeeded.
.step a=1 b=10
.step a=2 b=10
.step a=1 b=15
.step a=2 b=15
.step a=1 b=20
.step a=2 b=20
.step a=1 b=25
.step a=2 b=25


Measurement: sum
  step	a+b
     1	11
     2	12
     3	16
     4	17
     5	21
     6	22
     7	26
     8	27

Measurement: sump1000
  step	a+b+1000
     1	1011
     2	1012
     3	1016
     4	1017
     5	1021
     6	1022
     7	1026
     8	1027


Date: Sun Aug 30 06:55:58 2015
Total elapsed time: 0.171 seconds.

tnom = 27
temp = 27
method = modified trap
totiter = 2091
traniter = 2088
tranpoints = 1045
accept = 1045
rejected = 0
matrix size = 2
fillins = 0
solver = Normal
Matrix Compiler1: off  [0.0]/0.0/0.0
Matrix Compiler2: 96 bytes object code size  0.0/0.0/[0.0]


