Circuit: * C:\Users\Chris\.julia\v0.3\LTspice\examples\example 1\example1.asc

Direct Newton iteration for .op point succeeded.

y: INTEG(i(r1))=3 FROM 0 TO 1


Date: Thu Jul 30 04:07:23 2015
Total elapsed time: 0.032 seconds.

tnom = 27
temp = 27
method = modified trap
totiter = 2091
traniter = 2088
tranpoints = 1045
accept = 1045
rejected = 0
matrix size = 2
fillins = 0
solver = Normal
Matrix Compiler1: off  [0.0]/0.0/0.0
Matrix Compiler2: off  [0.0]/0.0/0.0


