Circuit: * C:\Users\Chris\.julia\v0.4\LTspice\examples\example 1\example1.asc

Direct Newton iteration for .op point succeeded.

pload: rload*i(r2)**2=0.0048 at 0.5


Date: Wed Sep 02 20:50:33 2015
Total elapsed time: 0.016 seconds.

tnom = 27
temp = 27
method = modified trap
totiter = 2091
traniter = 2088
tranpoints = 1045
accept = 1045
rejected = 0
matrix size = 3
fillins = 0
solver = Normal
Matrix Compiler1:       3 opcodes  0.0/[0.0]/0.0
Matrix Compiler2: 175 bytes object code size  0.0/0.0/[0.0]


