Circuit: * C:\Users\Chris\.julia\v0.3\LTspice\examples\example 2\example2.asc

.OP point found by inspection.

pload: INTEG(-i(r2)*v(load))=0.00749839 FROM 0 TO 3


Date: Thu Jul 30 23:19:42 2015
Total elapsed time: 0.000 seconds.

tnom = 27
temp = 27
method = modified trap
totiter = 2092
traniter = 2092
tranpoints = 1047
accept = 1047
rejected = 0
matrix size = 3
fillins = 0
solver = Normal
Matrix Compiler1: 50 bytes object code size  0.0/0.1/[0.0]
Matrix Compiler2: 175 bytes object code size  0.0/0.0/[0.0]


